[OPTIONS]
FLOW_UNITS CFS
INFILTRATION GREEN_AMPT
FLOW_ROUTING DYNWAVE
LINK_OFFSETS DEPTH
MIN_SLOPE 0
ALLOW_PONDING NO
SKIP_STEADY_STATE NO
START_DATE 01/01/2007
START_TIME 00:00:00
REPORT_START_DATE 01/01/2007
REPORT_START_TIME 00:00:00
END_DATE 01/02/2008
END_TIME 00:00:00
SWEEP_START 01/01
SWEEP_END 12/31
DRY_DAYS 0
REPORT_STEP 00:01:00
WET_STEP 00:00:15
DRY_STEP 00:01:00
ROUTING_STEP 0:00:15
RULE_STEP 00:00:00
INERTIAL_DAMPING PARTIAL
NORMAL_FLOW_LIMITED BOTH
FORCE_MAIN_EQUATION H-W
VARIABLE_STEP 0.75
LENGTHENING_STEP 0
MIN_SURFAREA 12.566
MAX_TRIALS 8
HEAD_TOLERANCE 0.005
SYS_FLOW_TOL 5
LAT_FLOW_TOL 5
MINIMUM_STEP 0.5
THREADS 8

[FILES]
SAVE OUTFLOWS "outflow.txt"

[EVAPORATION]
MONTHLY 0.092964186 0.090008146 0.097790196 0.120734908 0.146050292 0.166141732 0.191135382 0.172466345 0.158267717 0.143256287 0.116535433 0.097409195
DRY_ONLY YES

[RAINGAGES]
G1 INTENSITY 00:10 1 TIMESERIES rain

[SUBCATCHMENTS]
S1 G1 O1 1.236 100 511.48152 2 0 
S2 G1 O1 0 0 511.48152 2 0 

[SUBAREAS]
S1 0.012 0.24 0.05 0.15 0 OUTLET 
S2 0.012 0.24 0.05 0.15 0 OUTLET 

[INFILTRATION]
S1 6.69 0.26 0.364      7          0
S2 6.69 0.26 0.364      7          0

[LID_CONTROLS]
GreenRoof GR       
GreenRoof SURFACE 1 0.1 0.1 2 0  
GreenRoof SOIL 4 0.6 0.3 0.1 40 30 2
GreenRoof DRAINMAT 2 0.5 0.012    
PP PP       
PP SURFACE 0.05 0 0.012 1 0  
PP PAVEMENT 6 0.2 0 30 0 0 0
PP SOIL 8 0.25 0.15 0.05 10 30 2
PP STORAGE 12 0.66 0.26 0   
PP DRAIN 0.101 0.5 6 6 0 0 
BioretentionCell BC       
BioretentionCell SURFACE 6 0.05 0 1 0  
BioretentionCell SOIL 24 0.52 0.15 0.08 4.7 39.3 1.9
BioretentionCell STORAGE 12 0.67 0.5 0   
BioretentionCell DRAIN 0.1 0.5 6 6 0 0 

[LID_USAGE]
S1 GreenRoof 1 0 0 0 0 0 * O2               0
S1 PP 1 0 0 0 0 0 * O2               0
S1 BioretentionCell 1 2692.008 134.6004 0 100 0 * O2               0

[OUTFALLS]
O1 0 FREE  NO 
O2 0 FREE  NO 

[TIMESERIES]
rain  FILE rain_1.csv

[REPORT]
SUBCATCHMENTS ALL
NODES ALL
LINKS ALL

[MAP]
DIMENSIONS 0.000 0.000 10000.000 10000.000
Units None

[COORDINATES]
O1 5218.103 3838.604
O2 6302.158 3985.612

[POLYGONS]
S1 5600 7200
S1 5600 4200
S1 2900 4200
S1 2900 7200
S2 9900 6400
S2 9900 4200
S2 7700 4200
S2 7700 6400

[SYMBOLS]
G1 4074.97 8162.031

